
  EPA STORM WATER MANAGEMENT MODEL - VERSION 5.2 (Build 5.2.4)
  ------------------------------------------------------------

  Galviate 
  WARNING 07: routing time step reduced to the wet weather time step 
  
  ****************
  Analysis Options
  ****************
  Flow Units ............... CMS
  Process Models:
    Rainfall/Runoff ........ YES
    RDII ................... NO
    Snowmelt ............... NO
    Groundwater ............ NO
    Flow Routing ........... YES
    Ponding Allowed ........ NO
    Water Quality .......... NO
  Infiltration Method ...... CURVE_NUMBER
  Flow Routing Method ...... DYNWAVE
  Surcharge Method ......... EXTRAN
  Starting Date ............ 07/09/2020 00:00:00
  Ending Date .............. 07/09/2020 04:00:00
  Antecedent Dry Days ...... 15.0
  Report Time Step ......... 00:01:00
  Wet Time Step ............ 00:00:05
  Dry Time Step ............ 01:00:00
  Routing Time Step ........ 5.00 sec
  Variable Time Step ....... YES
  Maximum Trials ........... 8
  Number of Threads ........ 1
  Head Tolerance ........... 0.001500 m
  
  
  **************************        Volume         Depth
  Runoff Quantity Continuity     hectare-m            mm
  **************************     ---------       -------
  Total Precipitation ......         0.270        32.580
  Evaporation Loss .........         0.000         0.000
  Infiltration Loss ........         0.229        27.617
  Surface Runoff ...........         0.036         4.381
  Final Storage ............         0.005         0.583
  Continuity Error (%) .....         0.000
  
  
  **************************        Volume        Volume
  Flow Routing Continuity        hectare-m      10^6 ltr
  **************************     ---------     ---------
  Dry Weather Inflow .......         0.000         0.000
  Wet Weather Inflow .......         0.036         0.363
  Groundwater Inflow .......         0.000         0.000
  RDII Inflow ..............         0.000         0.000
  External Inflow ..........         0.000         0.000
  External Outflow .........         0.031         0.307
  Flooding Loss ............         0.005         0.055
  Evaporation Loss .........         0.000         0.000
  Exfiltration Loss ........         0.000         0.000
  Initial Stored Volume ....         0.000         0.000
  Final Stored Volume ......         0.000         0.000
  Continuity Error (%) .....         0.373
  
  
  *************************
  Highest Continuity Errors
  *************************
  Node 20125 (1.63%)
  Node 20138 (1.53%)
  Node 20124 (-1.34%)
  Node 20128 (1.23%)
  
  
  ***************************
  Time-Step Critical Elements
  ***************************
  Link 3752 (30.60%)
  Link 3734 (8.16%)
  
  
  ********************************
  Highest Flow Instability Indexes
  ********************************
  Link 3130 (3)
  
  
  *********************************
  Most Frequent Nonconverging Nodes
  *********************************
  Node 1 (0.64%)
  Node 20110 (0.37%)
  Node 20111 (0.27%)
  Node 20123 (0.22%)
  Node 20122 (0.02%)
  
  
  *************************
  Routing Time Step Summary
  *************************
  Minimum Time Step           :     0.76 sec
  Average Time Step           :     3.57 sec
  Maximum Time Step           :     5.00 sec
  % of Time in Steady State   :     0.00
  Average Iterations per Step :     2.09
  % of Steps Not Converging   :     0.64
  Time Step Frequencies       :
      5.000 -  3.155 sec      :    62.95 %
      3.155 -  1.991 sec      :     3.47 %
      1.991 -  1.256 sec      :     7.51 %
      1.256 -  0.792 sec      :    23.21 %
      0.792 -  0.500 sec      :     2.85 %
  
  
  ***************************
  Subcatchment Runoff Summary
  ***************************
  
  ------------------------------------------------------------------------------------------------------------------------------
                            Total      Total      Total      Total     Imperv       Perv      Total       Total     Peak  Runoff
                           Precip      Runon       Evap      Infil     Runoff     Runoff     Runoff      Runoff   Runoff   Coeff
  Subcatchment                 mm         mm         mm         mm         mm         mm         mm    10^6 ltr      CMS
  ------------------------------------------------------------------------------------------------------------------------------
  6287                      32.58       0.00       0.00      28.36       0.00       4.22       4.22        0.02     0.03   0.129
  6296                      32.58       0.00       0.00      31.35       0.00       0.01       0.01        0.00     0.00   0.000
  25107                     32.58       0.00       0.00      25.03       0.00       7.55       7.55        0.02     0.03   0.232
  25108                     32.58       0.00       0.00      27.48       0.00       5.10       5.10        0.01     0.02   0.157
  25109                     32.58       0.00       0.00      27.04       0.00       5.54       5.54        0.03     0.04   0.170
  25110                     32.58       0.00       0.00      25.22       0.00       7.36       7.36        0.02     0.03   0.226
  25117                     32.58       0.00       0.00      27.65       0.00       4.94       4.94        0.03     0.03   0.151
  25119                     32.58       0.00       0.00      26.47       0.00       4.84       4.84        0.01     0.02   0.149
  25120                     32.58       0.00       0.00      26.71       0.00       4.62       4.62        0.02     0.03   0.142
  25121                     32.58       0.00       0.00      25.34       0.00       7.24       7.24        0.01     0.02   0.222
  25122                     32.58       0.00       0.00      26.03       0.00       6.55       6.55        0.03     0.04   0.201
  25123                     32.58       0.00       0.00      29.35       0.00       3.23       3.23        0.02     0.04   0.099
  25124                     32.58       0.00       0.00      28.59       0.00       2.72       2.72        0.01     0.02   0.084
  25125                     32.58       0.00       0.00      26.64       0.00       4.69       4.69        0.01     0.03   0.144
  25126                     32.58       0.00       0.00      24.82       0.00       6.50       6.50        0.00     0.01   0.200
  25127                     32.58       0.00       0.00      23.86       0.00       7.45       7.45        0.00     0.00   0.229
  25129                     32.58       0.00       0.00      31.34       0.00       0.01       0.01        0.00     0.00   0.000
  25130                     32.58       0.00       0.00      29.05       0.00       2.26       2.26        0.00     0.01   0.069
  25131                     32.58       0.00       0.00      26.23       0.00       5.10       5.10        0.01     0.01   0.157
  25132                     32.58       0.00       0.00      26.70       0.00       4.62       4.62        0.01     0.02   0.142
  25133                     32.58       0.00       0.00      28.08       0.00       3.23       3.23        0.00     0.00   0.099
  25135                     32.58       0.00       0.00      28.84       0.00       2.50       2.50        0.00     0.01   0.077
  25136                     32.58       0.00       0.00      28.16       0.00       3.16       3.16        0.01     0.02   0.097
  25977                     32.58       0.00       0.00      30.06       0.00       1.27       1.27        0.01     0.02   0.039
  27169                     32.58       0.00       0.00      27.06       0.00       4.26       4.26        0.02     0.04   0.131
  28233                     32.58       0.00       0.00      25.81       0.00       6.77       6.77        0.06     0.08   0.208
  
  
  ******************
  Node Depth Summary
  ******************
  
  ---------------------------------------------------------------------------------
                                 Average  Maximum  Maximum  Time of Max    Reported
                                   Depth    Depth      HGL   Occurrence   Max Depth
  Node                 Type       Meters   Meters   Meters  days hr:min      Meters
  ---------------------------------------------------------------------------------
  1287                 JUNCTION     0.02     0.09   415.00     0  01:25        0.09
  1296                 JUNCTION     0.00     0.01   434.22     0  01:25        0.01
  20107                JUNCTION     0.03     0.11   398.86     0  01:25        0.11
  20108                JUNCTION     0.03     0.14   397.73     0  01:25        0.14
  20109                JUNCTION     0.06     0.17   396.89     0  01:25        0.17
  20110                JUNCTION     0.16     0.92   394.88     0  01:21        0.92
  20111                JUNCTION     0.23     1.35   394.77     0  01:22        1.35
  20119                JUNCTION     0.02     0.09   409.99     0  01:25        0.09
  20120                JUNCTION     0.19     0.35   408.15     0  01:25        0.35
  20121                JUNCTION     0.21     0.40   400.27     0  01:25        0.40
  20122                JUNCTION     0.10     0.35   394.85     0  01:22        0.33
  20123                JUNCTION     0.06     1.47   399.10     0  01:25        0.70
  20124                JUNCTION     0.03     0.15   417.57     0  01:25        0.15
  20125                JUNCTION     0.02     0.13   421.50     0  01:25        0.13
  20126                JUNCTION     0.04     0.14   426.04     0  01:25        0.14
  20127                JUNCTION     0.08     0.18   428.19     0  01:25        0.17
  20128                JUNCTION     0.24     0.40   429.61     0  01:25        0.40
  20129                JUNCTION     0.15     0.26   430.67     0  01:25        0.26
  20130                JUNCTION     0.15     0.27   431.98     0  01:25        0.27
  20131                JUNCTION     0.13     0.23   434.38     0  01:25        0.23
  20132                JUNCTION     0.01     0.07   436.08     0  01:25        0.07
  20133                JUNCTION     0.04     0.10   439.13     0  01:25        0.10
  20135                JUNCTION     0.03     0.06   431.11     0  01:25        0.06
  20136                JUNCTION     0.01     0.05   421.81     0  01:25        0.05
  20138                JUNCTION     0.03     0.17   414.54     0  01:25        0.17
  20977                JUNCTION     0.01     0.04   440.44     0  01:25        0.04
  22169                JUNCTION     0.05     0.35   408.64     0  01:25        0.34
  20117                JUNCTION     0.06     0.24   381.09     0  01:25        0.24
  20116                JUNCTION     0.05     0.20   384.64     0  01:25        0.20
  23233                JUNCTION     0.05     0.20   385.20     0  01:25        0.20
  1                    OUTFALL      0.06     0.24   377.95     0  01:25        0.24
  
  
  *******************
  Node Inflow Summary
  *******************
  
  -------------------------------------------------------------------------------------------------
                                  Maximum  Maximum                  Lateral       Total        Flow
                                  Lateral    Total  Time of Max      Inflow      Inflow     Balance
                                   Inflow   Inflow   Occurrence      Volume      Volume       Error
  Node                 Type           CMS      CMS  days hr:min    10^6 ltr    10^6 ltr     Percent
  -------------------------------------------------------------------------------------------------
  1287                 JUNCTION     0.032    0.061     0  01:25      0.0177      0.0307      -0.009
  1296                 JUNCTION     0.000    0.000     0  01:25    1.87e-05    1.87e-05       1.162 ltr
  20107                JUNCTION     0.030    0.030     0  01:25      0.0211      0.0211      -0.113
  20108                JUNCTION     0.020    0.050     0  01:25      0.0122      0.0334       0.099
  20109                JUNCTION     0.040    0.089     0  01:25      0.0266        0.06      -0.033
  20110                JUNCTION     0.034    0.123     0  01:25      0.0243      0.0842      -0.108
  20111                JUNCTION     0.000    0.398     0  01:25           0       0.257      -0.545
  20119                JUNCTION     0.017    0.017     0  01:25      0.0092      0.0092      -0.007
  20120                JUNCTION     0.029    0.083     0  01:25      0.0157      0.0457       0.380
  20121                JUNCTION     0.019    0.101     0  01:25      0.0116      0.0571       0.856
  20122                JUNCTION     0.039    0.140     0  01:25      0.0255      0.0822      -0.001
  20123                JUNCTION     0.036    0.206     0  01:25      0.0229       0.107      -0.153
  20124                JUNCTION     0.020    0.114     0  01:25      0.0101      0.0541      -1.324
  20125                JUNCTION     0.026    0.095     0  01:25      0.0131      0.0447       1.656
  20126                JUNCTION     0.008    0.071     0  01:25     0.00325      0.0316       0.101
  20127                JUNCTION     0.004    0.066     0  01:25     0.00149      0.0284       0.324
  20128                JUNCTION     0.000    0.064     0  01:25           0      0.0273       1.246
  20129                JUNCTION     0.001    0.064     0  01:25    5.31e-05      0.0275       0.770
  20130                JUNCTION     0.011    0.063     0  01:25     0.00429      0.0277       0.757
  20131                JUNCTION     0.014    0.053     0  01:25     0.00765      0.0235       0.746
  20132                JUNCTION     0.016    0.039     0  01:25     0.00831      0.0159      -0.037
  20133                JUNCTION     0.004    0.023     0  01:25     0.00194     0.00764       0.855
  20135                JUNCTION     0.011    0.011     0  01:25      0.0045     0.00452       0.684
  20136                JUNCTION     0.018    0.029     0  01:25     0.00854       0.013       0.028
  20138                JUNCTION     0.000    0.174     0  01:25           0      0.0855       1.550
  20977                JUNCTION     0.019    0.019     0  01:25      0.0057      0.0057      -0.005
  22169                JUNCTION     0.038    0.038     0  01:25      0.0209      0.0209       0.318
  20117                JUNCTION     0.034    0.369     0  01:25      0.0262       0.307       0.016
  20116                JUNCTION     0.000    0.335     0  01:25           0       0.281      -0.014
  23233                JUNCTION     0.079    0.335     0  01:25      0.0602       0.281      -0.001
  1                    OUTFALL      0.000    0.368     0  01:25           0       0.307       0.000
  
  
  **********************
  Node Surcharge Summary
  **********************
  
  Surcharging occurs when water rises above the top of the highest conduit.
  ---------------------------------------------------------------------
                                               Max. Height   Min. Depth
                                   Hours       Above Crown    Below Rim
  Node                 Type      Surcharged         Meters       Meters
  ---------------------------------------------------------------------
  20110                JUNCTION        0.13          0.570        0.000
  20111                JUNCTION        0.12          0.470        0.000
  20123                JUNCTION        0.01          1.140        0.000
  22169                JUNCTION        0.04          0.095        0.755
  
  
  *********************
  Node Flooding Summary
  *********************
  
  Flooding refers to all water that overflows a node, whether it ponds or not.
  --------------------------------------------------------------------------
                                                             Total   Maximum
                                 Maximum   Time of Max       Flood    Ponded
                        Hours       Rate    Occurrence      Volume     Depth
  Node                 Flooded       CMS   days hr:min    10^6 ltr    Meters
  --------------------------------------------------------------------------
  20110                   0.11     0.062      0  01:25       0.017     0.000
  20111                   0.10     0.141      0  01:25       0.037     0.000
  20123                   0.01     0.014      0  01:25       0.000     0.000
  
  
  ***********************
  Outfall Loading Summary
  ***********************
  
  -----------------------------------------------------------
                         Flow       Avg       Max       Total
                         Freq      Flow      Flow      Volume
  Outfall Node           Pcnt       CMS       CMS    10^6 ltr
  -----------------------------------------------------------
  1                     45.05     0.180     0.368       0.307
  -----------------------------------------------------------
  System                45.05     0.180     0.368       0.307
  
  
  ********************
  Link Flow Summary
  ********************
  
  -----------------------------------------------------------------------------
                                 Maximum  Time of Max   Maximum    Max/    Max/
                                  |Flow|   Occurrence   |Veloc|    Full    Full
  Link                 Type          CMS  days hr:min     m/sec    Flow   Depth
  -----------------------------------------------------------------------------
  3115                 CONDUIT     0.030     0  01:25      1.24    0.23    0.39
  3116                 CONDUIT     0.050     0  01:25      1.58    0.43    0.46
  3117                 CONDUIT     0.089     0  01:25      1.75    0.47    0.74
  3118                 CONDUIT     0.110     0  01:22      1.69    1.05    1.00
  3119                 CONDUIT     0.199     0  01:25      2.85    0.99    1.00
  3129                 CONDUIT     0.017     0  01:25      1.05    0.27    0.36
  3130                 CONDUIT     0.038     0  01:25      0.84    1.24    0.86
  3131                 CONDUIT     0.082     0  01:25      2.97    0.58    0.55
  3132                 CONDUIT     0.101     0  01:25      2.82    0.78    0.75
  3133                 CONDUIT     0.172     0  01:25      3.70    0.60    0.78
  3134                 CONDUIT     0.114     0  01:25      2.51    0.27    0.39
  3135                 CONDUIT     0.094     0  01:25      3.09    0.41    0.45
  3136                 CONDUIT     0.070     0  01:25      2.86    0.31    0.38
  3137                 CONDUIT     0.066     0  01:25      3.86    0.31    0.38
  3138                 CONDUIT     0.064     0  01:25      3.39    0.35    0.41
  3139                 CONDUIT     0.064     0  01:25      4.78    0.22    0.32
  3140                 CONDUIT     0.063     0  01:25      3.89    0.29    0.37
  3141                 CONDUIT     0.053     0  01:25      3.61    0.25    0.34
  3142                 CONDUIT     0.039     0  01:25      3.19    0.19    0.30
  3143                 CONDUIT     0.023     0  01:25      2.62    0.10    0.23
  3144                 CONDUIT     0.000     0  01:25      0.13    0.00    0.09
  3145                 CONDUIT     0.011     0  01:25      3.35    0.05    0.16
  3146                 CONDUIT     0.029     0  01:25      2.78    0.15    0.37
  3147                 CONDUIT     0.061     0  01:25      3.35    0.45    0.65
  3734                 CONDUIT     0.140     0  01:25      5.18    0.33    0.95
  3816                 CONDUIT     0.019     0  01:25      1.55    0.07    0.30
  3120                 CONDUIT     0.258     0  01:20      4.63    1.01    0.83
  3752                 CONDUIT     0.335     0  01:25      4.50    0.34    0.40
  3127                 CONDUIT     0.335     0  01:25      3.98    0.35    0.44
  3121                 CONDUIT     0.368     0  01:25      3.97    0.46    0.48
  
  
  ***************************
  Flow Classification Summary
  ***************************
  
  -------------------------------------------------------------------------------------
                      Adjusted    ---------- Fraction of Time in Flow Class ---------- 
                       /Actual         Up    Down  Sub   Sup   Up    Down  Norm  Inlet 
  Conduit               Length    Dry  Dry   Dry   Crit  Crit  Crit  Crit  Ltd   Ctrl  
  -------------------------------------------------------------------------------------
  3115                    1.00   0.31  0.00  0.00  0.58  0.11  0.00  0.00  0.67  0.00
  3116                    1.00   0.31  0.00  0.00  0.00  0.00  0.00  0.69  0.00  0.00
  3117                    1.00   0.32  0.00  0.00  0.02  0.08  0.00  0.58  0.10  0.00
  3118                    1.00   0.31  0.00  0.00  0.04  0.00  0.00  0.64  0.00  0.00
  3119                    1.00   0.32  0.00  0.00  0.01  0.03  0.00  0.64  0.02  0.00
  3129                    1.00   0.32  0.00  0.00  0.00  0.00  0.00  0.68  0.00  0.00
  3130                    1.00   0.32  0.13  0.00  0.55  0.00  0.00  0.01  0.60  0.00
  3131                    1.00   0.32  0.00  0.00  0.00  0.00  0.00  0.68  0.00  0.00
  3132                    1.00   0.32  0.00  0.00  0.00  0.03  0.00  0.65  0.03  0.00
  3133                    1.00   0.32  0.00  0.00  0.00  0.08  0.00  0.60  0.07  0.00
  3134                    1.00   0.32  0.49  0.00  0.08  0.11  0.00  0.00  0.66  0.00
  3135                    1.00   0.32  0.00  0.00  0.00  0.03  0.00  0.65  0.03  0.00
  3136                    1.00   0.32  0.00  0.00  0.00  0.00  0.00  0.68  0.00  0.00
  3137                    1.00   0.32  0.00  0.00  0.00  0.00  0.00  0.68  0.00  0.00
  3138                    1.00   0.33  0.00  0.00  0.00  0.00  0.00  0.67  0.00  0.00
  3139                    1.00   0.33  0.00  0.00  0.00  0.00  0.00  0.67  0.00  0.00
  3140                    1.00   0.33  0.00  0.00  0.00  0.00  0.00  0.67  0.00  0.00
  3141                    1.00   0.32  0.00  0.00  0.00  0.00  0.00  0.68  0.00  0.00
  3142                    1.00   0.32  0.00  0.00  0.00  0.00  0.00  0.68  0.00  0.00
  3143                    1.00   0.32  0.01  0.00  0.00  0.05  0.00  0.62  0.05  0.00
  3144                    1.00   0.33  0.02  0.00  0.65  0.00  0.00  0.00  0.65  0.00
  3145                    1.00   0.33  0.00  0.00  0.00  0.01  0.00  0.66  0.01  0.00
  3146                    1.00   0.32  0.00  0.00  0.61  0.07  0.00  0.00  0.68  0.00
  3147                    1.00   0.32  0.53  0.00  0.07  0.09  0.00  0.00  0.67  0.00
  3734                    1.00   0.32  0.00  0.00  0.01  0.02  0.00  0.65  0.01  0.00
  3816                    1.00   0.32  0.59  0.00  0.05  0.03  0.00  0.00  0.67  0.00
  3120                    1.00   0.31  0.01  0.00  0.39  0.29  0.00  0.00  0.24  0.00
  3752                    1.00   0.31  0.00  0.00  0.39  0.30  0.00  0.00  0.30  0.00
  3127                    1.00   0.31  0.00  0.00  0.41  0.28  0.00  0.00  0.67  0.00
  3121                    1.00   0.31  0.00  0.00  0.39  0.29  0.00  0.00  0.09  0.00
  
  
  *************************
  Conduit Surcharge Summary
  *************************
  
  ----------------------------------------------------------------------------
                                                           Hours        Hours 
                         --------- Hours Full --------   Above Full   Capacity
  Conduit                Both Ends  Upstream  Dnstream   Normal Flow   Limited
  ----------------------------------------------------------------------------
  3117                        0.01      0.01      0.13      0.01         0.01
  3118                        0.14      0.14      0.16      0.01         0.01
  3119                        0.02      0.02      0.15      0.01         0.01
  3130                        0.01      0.04      0.01      0.07         0.01
  3133                        0.01      0.01      0.01      0.01         0.01
  3734                        0.01      0.01      0.12      0.01         0.01
  3120                        0.01      0.18      0.01      0.06         0.01
  

  Analysis begun on:  Wed Jan 17 18:37:19 2024
  Analysis ended on:  Wed Jan 17 18:37:19 2024
  Total elapsed time: < 1 sec