
  EPA STORM WATER MANAGEMENT MODEL - VERSION 5.2 (Build 5.2.4)
  ------------------------------------------------------------

  Galviate 
  WARNING 07: routing time step reduced to the wet weather time step 
  
  ****************
  Analysis Options
  ****************
  Flow Units ............... CMS
  Process Models:
    Rainfall/Runoff ........ YES
    RDII ................... NO
    Snowmelt ............... NO
    Groundwater ............ NO
    Flow Routing ........... YES
    Ponding Allowed ........ NO
    Water Quality .......... NO
  Infiltration Method ...... CURVE_NUMBER
  Flow Routing Method ...... DYNWAVE
  Surcharge Method ......... EXTRAN
  Starting Date ............ 07/09/2020 00:00:00
  Ending Date .............. 07/09/2020 04:00:00
  Antecedent Dry Days ...... 15.0
  Report Time Step ......... 00:01:00
  Wet Time Step ............ 00:00:05
  Dry Time Step ............ 01:00:00
  Routing Time Step ........ 5.00 sec
  Variable Time Step ....... YES
  Maximum Trials ........... 8
  Number of Threads ........ 1
  Head Tolerance ........... 0.001500 m
  
  
  **************************        Volume         Depth
  Runoff Quantity Continuity     hectare-m            mm
  **************************     ---------       -------
  Total Precipitation ......         0.430        51.862
  Evaporation Loss .........         0.000         0.000
  Infiltration Loss ........         0.219        26.401
  Surface Runoff ...........         0.205        24.746
  Final Storage ............         0.006         0.715
  Continuity Error (%) .....         0.000
  
  
  **************************        Volume        Volume
  Flow Routing Continuity        hectare-m      10^6 ltr
  **************************     ---------     ---------
  Dry Weather Inflow .......         0.000         0.000
  Wet Weather Inflow .......         0.205         2.051
  Groundwater Inflow .......         0.000         0.000
  RDII Inflow ..............         0.000         0.000
  External Inflow ..........         0.000         0.000
  External Outflow .........         0.115         1.150
  Flooding Loss ............         0.090         0.899
  Evaporation Loss .........         0.000         0.000
  Exfiltration Loss ........         0.000         0.000
  Initial Stored Volume ....         0.000         0.000
  Final Stored Volume ......         0.000         0.001
  Continuity Error (%) .....         0.053
  
  
  ***************************
  Time-Step Critical Elements
  ***************************
  Link 3752 (58.06%)
  Link 3139 (18.64%)
  Link 3734 (9.24%)
  Link 3147 (1.05%)
  
  
  ********************************
  Highest Flow Instability Indexes
  ********************************
  Link 3130 (9)
  
  
  *********************************
  Most Frequent Nonconverging Nodes
  *********************************
  Node 1 (1.89%)
  Node 1287 (0.55%)
  Node 20138 (0.53%)
  Node 20126 (0.28%)
  Node 20128 (0.27%)
  
  
  *************************
  Routing Time Step Summary
  *************************
  Minimum Time Step           :     0.50 sec
  Average Time Step           :     2.05 sec
  Maximum Time Step           :     5.00 sec
  % of Time in Steady State   :     0.00
  Average Iterations per Step :     2.33
  % of Steps Not Converging   :     1.89
  Time Step Frequencies       :
      5.000 -  3.155 sec      :    21.60 %
      3.155 -  1.991 sec      :    19.48 %
      1.991 -  1.256 sec      :    11.04 %
      1.256 -  0.792 sec      :    37.10 %
      0.792 -  0.500 sec      :    10.77 %
  
  
  ***************************
  Subcatchment Runoff Summary
  ***************************
  
  ------------------------------------------------------------------------------------------------------------------------------
                            Total      Total      Total      Total     Imperv       Perv      Total       Total     Peak  Runoff
                           Precip      Runon       Evap      Infil     Runoff     Runoff     Runoff      Runoff   Runoff   Coeff
  Subcatchment                 mm         mm         mm         mm         mm         mm         mm    10^6 ltr      CMS
  ------------------------------------------------------------------------------------------------------------------------------
  6287                      51.86       0.00       0.00      26.07       0.00      25.09      25.09        0.11     0.08   0.484
  6296                      51.86       0.00       0.00      40.00       0.00      11.27      11.27        0.03     0.02   0.217
  25107                     51.86       0.00       0.00      20.48       0.00      30.68      30.68        0.09     0.07   0.592
  25108                     51.86       0.00       0.00      24.23       0.00      26.90      26.90        0.06     0.05   0.519
  25109                     51.86       0.00       0.00      23.19       0.00      27.91      27.91        0.13     0.09   0.538
  25110                     51.86       0.00       0.00      20.57       0.00      30.56      30.56        0.10     0.08   0.589
  25117                     51.86       0.00       0.00      23.32       0.00      27.61      27.61        0.15     0.08   0.532
  25119                     51.86       0.00       0.00      25.52       0.00      25.71      25.71        0.05     0.04   0.496
  25120                     51.86       0.00       0.00      25.71       0.00      25.50      25.50        0.09     0.07   0.492
  25121                     51.86       0.00       0.00      21.95       0.00      29.31      29.31        0.05     0.05   0.565
  25122                     51.86       0.00       0.00      22.11       0.00      29.06      29.06        0.11     0.09   0.560
  25123                     51.86       0.00       0.00      26.94       0.00      24.03      24.03        0.17     0.09   0.463
  25124                     51.86       0.00       0.00      28.93       0.00      22.20      22.20        0.08     0.06   0.428
  25125                     51.86       0.00       0.00      26.36       0.00      24.92      24.92        0.07     0.07   0.480
  25126                     51.86       0.00       0.00      24.50       0.00      26.84      26.84        0.01     0.02   0.518
  25127                     51.86       0.00       0.00      24.11       0.00      27.25      27.25        0.01     0.01   0.526
  25129                     51.86       0.00       0.00      39.85       0.00      11.42      11.42        0.05     0.03   0.220
  25130                     51.86       0.00       0.00      31.04       0.00      20.22      20.22        0.04     0.03   0.390
  25131                     51.86       0.00       0.00      25.44       0.00      25.83      25.83        0.04     0.04   0.498
  25132                     51.86       0.00       0.00      26.36       0.00      24.91      24.91        0.04     0.04   0.480
  25133                     51.86       0.00       0.00      29.21       0.00      22.07      22.07        0.01     0.01   0.426
  25135                     51.86       0.00       0.00      30.34       0.00      20.91      20.91        0.04     0.03   0.403
  25136                     51.86       0.00       0.00      28.77       0.00      22.47      22.47        0.06     0.05   0.433
  25977                     51.86       0.00       0.00      33.74       0.00      17.55      17.55        0.08     0.07   0.338
  27169                     51.86       0.00       0.00      26.03       0.00      25.14      25.14        0.12     0.09   0.485
  28233                     51.86       0.00       0.00      20.82       0.00      30.20      30.20        0.27     0.17   0.582
  
  
  ******************
  Node Depth Summary
  ******************
  
  ---------------------------------------------------------------------------------
                                 Average  Maximum  Maximum  Time of Max    Reported
                                   Depth    Depth      HGL   Occurrence   Max Depth
  Node                 Type       Meters   Meters   Meters  days hr:min      Meters
  ---------------------------------------------------------------------------------
  1287                 JUNCTION     0.18     0.90   415.81     0  01:33        0.90
  1296                 JUNCTION     0.02     0.06   434.27     0  01:35        0.05
  20107                JUNCTION     0.06     0.17   398.92     0  01:36        0.17
  20108                JUNCTION     0.09     1.65   399.24     0  01:35        0.95
  20109                JUNCTION     0.14     1.26   397.98     0  01:35        1.11
  20110                JUNCTION     0.37     0.92   394.88     0  01:31        0.92
  20111                JUNCTION     0.54     1.35   394.77     0  01:32        1.35
  20119                JUNCTION     0.05     0.15   410.05     0  01:35        0.15
  20120                JUNCTION     0.29     1.27   409.07     0  01:34        1.27
  20121                JUNCTION     0.44     1.47   401.34     0  01:33        1.47
  20122                JUNCTION     0.18     1.03   395.53     0  01:32        0.44
  20123                JUNCTION     0.50     1.47   399.10     0  01:32        1.47
  20124                JUNCTION     0.10     0.30   417.72     0  01:35        0.30
  20125                JUNCTION     0.12     1.12   422.49     0  01:34        1.12
  20126                JUNCTION     0.11     1.22   427.12     0  01:35        0.90
  20127                JUNCTION     0.14     0.95   428.96     0  01:35        0.90
  20128                JUNCTION     0.34     1.57   430.78     0  01:35        1.57
  20129                JUNCTION     0.21     0.85   431.26     0  01:35        0.81
  20130                JUNCTION     0.20     0.38   432.09     0  01:35        0.36
  20131                JUNCTION     0.18     0.31   434.46     0  01:35        0.31
  20132                JUNCTION     0.04     0.14   436.15     0  01:35        0.14
  20133                JUNCTION     0.07     0.15   439.18     0  01:35        0.15
  20135                JUNCTION     0.05     0.10   431.15     0  01:35        0.10
  20136                JUNCTION     0.03     0.10   421.86     0  01:35        0.10
  20138                JUNCTION     0.28     1.44   415.81     0  01:33        1.44
  20977                JUNCTION     0.03     0.09   440.49     0  01:35        0.09
  22169                JUNCTION     0.28     1.10   409.39     0  01:31        1.10
  20117                JUNCTION     0.13     0.29   381.14     0  01:35        0.29
  20116                JUNCTION     0.11     0.24   384.68     0  01:35        0.24
  23233                JUNCTION     0.11     0.23   385.23     0  01:35        0.23
  1                    OUTFALL      0.13     0.29   378.00     0  01:35        0.29
  
  
  *******************
  Node Inflow Summary
  *******************
  
  -------------------------------------------------------------------------------------------------
                                  Maximum  Maximum                  Lateral       Total        Flow
                                  Lateral    Total  Time of Max      Inflow      Inflow     Balance
                                   Inflow   Inflow   Occurrence      Volume      Volume       Error
  Node                 Type           CMS      CMS  days hr:min    10^6 ltr    10^6 ltr     Percent
  -------------------------------------------------------------------------------------------------
  1287                 JUNCTION     0.080    0.181     0  01:35       0.105        0.23      -0.005
  1296                 JUNCTION     0.019    0.019     0  01:35      0.0259      0.0259       0.025
  20107                JUNCTION     0.069    0.069     0  01:35      0.0859      0.0859       0.016
  20108                JUNCTION     0.048    0.115     0  01:35      0.0646        0.15       0.095
  20109                JUNCTION     0.092    0.202     0  01:35       0.134       0.284      -0.030
  20110                JUNCTION     0.077    0.269     0  01:35       0.101       0.385      -0.044
  20111                JUNCTION     0.000    0.504     0  01:35           0        1.08      -0.124
  20119                JUNCTION     0.043    0.043     0  01:35      0.0488      0.0488       0.328
  20120                JUNCTION     0.073    0.164     0  01:34      0.0867       0.239       0.086
  20121                JUNCTION     0.045    0.186     0  01:35      0.0469       0.286       0.108
  20122                JUNCTION     0.091    0.230     0  01:35       0.113       0.379      -0.029
  20123                JUNCTION     0.092    0.375     0  01:40       0.171        0.73       0.086
  20124                JUNCTION     0.055    0.307     0  01:35      0.0822       0.424      -0.364
  20125                JUNCTION     0.068    0.290     0  01:35      0.0698       0.348       0.398
  20126                JUNCTION     0.015    0.243     0  01:35      0.0134       0.278       0.089
  20127                JUNCTION     0.007    0.232     0  01:35     0.00545       0.265       0.082
  20128                JUNCTION     0.000    0.227     0  01:35           0        0.26       0.139
  20129                JUNCTION     0.035    0.229     0  01:35      0.0468       0.261       0.084
  20130                JUNCTION     0.034    0.195     0  01:35      0.0384       0.214       0.123
  20131                JUNCTION     0.037    0.161     0  01:35      0.0387       0.176       0.103
  20132                JUNCTION     0.043    0.126     0  01:35      0.0448       0.137      -0.010
  20133                JUNCTION     0.013    0.084     0  01:35      0.0132      0.0922       0.086
  20135                JUNCTION     0.033    0.051     0  01:35      0.0376      0.0635      -0.035
  20136                JUNCTION     0.052    0.102     0  01:35      0.0607       0.124       0.029
  20138                JUNCTION     0.000    0.398     0  01:33           0       0.569       0.150
  20977                JUNCTION     0.071    0.071     0  01:35       0.079       0.079       0.003
  22169                JUNCTION     0.095    0.095     0  01:35       0.123       0.123       0.031
  20117                JUNCTION     0.077    0.509     0  01:35       0.146        1.15       0.016
  20116                JUNCTION     0.000    0.434     0  01:35           0           1       0.001
  23233                JUNCTION     0.171    0.434     0  01:35       0.269           1       0.012
  1                    OUTFALL      0.000    0.509     0  01:35           0        1.15       0.000
  
  
  **********************
  Node Surcharge Summary
  **********************
  
  Surcharging occurs when water rises above the top of the highest conduit.
  ---------------------------------------------------------------------
                                               Max. Height   Min. Depth
                                   Hours       Above Crown    Below Rim
  Node                 Type      Surcharged         Meters       Meters
  ---------------------------------------------------------------------
  1287                 JUNCTION        0.25          0.700        0.000
  20108                JUNCTION        0.05          1.350        0.000
  20109                JUNCTION        0.10          0.900        0.000
  20110                JUNCTION        0.57          0.570        0.000
  20111                JUNCTION        0.55          0.470        0.000
  20120                JUNCTION        0.11          0.710        0.000
  20121                JUNCTION        0.23          0.790        0.000
  20122                JUNCTION        0.22          0.646        0.154
  20123                JUNCTION        0.51          1.140        0.000
  20125                JUNCTION        0.08          0.730        0.000
  20126                JUNCTION        0.04          0.890        0.000
  20127                JUNCTION        0.03          0.600        0.000
  20128                JUNCTION        0.04          0.780        0.000
  20129                JUNCTION        0.02          0.312        0.198
  20138                JUNCTION        0.26          1.040        0.000
  22169                JUNCTION        0.49          0.850        0.000
  
  
  *********************
  Node Flooding Summary
  *********************
  
  Flooding refers to all water that overflows a node, whether it ponds or not.
  --------------------------------------------------------------------------
                                                             Total   Maximum
                                 Maximum   Time of Max       Flood    Ponded
                        Hours       Rate    Occurrence      Volume     Depth
  Node                 Flooded       CMS   days hr:min    10^6 ltr    Meters
  --------------------------------------------------------------------------
  1287                    0.23     0.173      0  01:35       0.086     0.000
  20108                   0.01     0.013      0  01:35       0.000     0.000
  20109                   0.01     0.028      0  01:35       0.000     0.000
  20110                   0.55     0.208      0  01:35       0.204     0.000
  20111                   0.54     0.242      0  01:35       0.344     0.000
  20120                   0.01     0.027      0  01:34       0.000     0.000
  20121                   0.21     0.047      0  01:35       0.020     0.000
  20123                   0.49     0.162      0  01:40       0.212     0.000
  20125                   0.06     0.042      0  01:34       0.005     0.000
  20126                   0.01     0.020      0  01:35       0.000     0.000
  20127                   0.01     0.019      0  01:35       0.000     0.000
  20128                   0.01     0.018      0  01:35       0.000     0.000
  20138                   0.11     0.124      0  01:33       0.008     0.000
  22169                   0.19     0.064      0  01:35       0.019     0.000
  
  
  ***********************
  Outfall Loading Summary
  ***********************
  
  -----------------------------------------------------------
                         Flow       Avg       Max       Total
                         Freq      Flow      Flow      Volume
  Outfall Node           Pcnt       CMS       CMS    10^6 ltr
  -----------------------------------------------------------
  1                     87.24     0.212     0.509       1.150
  -----------------------------------------------------------
  System                87.24     0.212     0.509       1.150
  
  
  ********************
  Link Flow Summary
  ********************
  
  -----------------------------------------------------------------------------
                                 Maximum  Time of Max   Maximum    Max/    Max/
                                  |Flow|   Occurrence   |Veloc|    Full    Full
  Link                 Type          CMS  days hr:min     m/sec    Flow   Depth
  -----------------------------------------------------------------------------
  3115                 CONDUIT     0.068     0  01:35      1.41    0.51    0.76
  3116                 CONDUIT     0.111     0  01:35      1.81    0.96    1.00
  3117                 CONDUIT     0.197     0  01:35      2.78    1.04    1.00
  3118                 CONDUIT     0.116     0  01:32      1.64    1.10    1.00
  3119                 CONDUIT     0.213     0  01:33      3.04    1.06    1.00
  3129                 CONDUIT     0.042     0  01:35      1.25    0.69    0.81
  3130                 CONDUIT     0.062     0  01:33      1.27    2.04    1.00
  3131                 CONDUIT     0.144     0  01:33      3.22    1.02    1.00
  3132                 CONDUIT     0.139     0  01:45      2.94    1.08    1.00
  3133                 CONDUIT     0.297     0  01:33      4.29    1.04    1.00
  3134                 CONDUIT     0.308     0  01:35      2.88    0.75    0.86
  3135                 CONDUIT     0.252     0  01:37      3.67    1.10    1.00
  3136                 CONDUIT     0.226     0  01:35      3.66    0.98    1.00
  3137                 CONDUIT     0.229     0  01:35      4.97    1.06    1.00
  3138                 CONDUIT     0.227     0  01:35      4.63    1.25    1.00
  3139                 CONDUIT     0.227     0  01:35      6.50    0.78    1.00
  3140                 CONDUIT     0.195     0  01:35      5.06    0.88    0.89
  3141                 CONDUIT     0.161     0  01:35      4.79    0.76    0.65
  3142                 CONDUIT     0.126     0  01:35      4.36    0.62    0.57
  3143                 CONDUIT     0.084     0  01:35      3.67    0.36    0.47
  3144                 CONDUIT     0.019     0  01:35      2.33    0.17    0.31
  3145                 CONDUIT     0.051     0  01:35      4.67    0.25    0.38
  3146                 CONDUIT     0.102     0  01:35      3.98    0.53    0.76
  3147                 CONDUIT     0.142     0  01:33      4.51    1.06    1.00
  3734                 CONDUIT     0.230     0  01:35      5.30    0.54    1.00
  3816                 CONDUIT     0.071     0  01:35      3.04    0.26    0.48
  3120                 CONDUIT     0.263     0  01:35      4.60    1.03    0.89
  3752                 CONDUIT     0.434     0  01:35      4.82    0.44    0.47
  3127                 CONDUIT     0.433     0  01:35      4.13    0.45    0.53
  3121                 CONDUIT     0.509     0  01:35      4.29    0.64    0.58
  
  
  ***************************
  Flow Classification Summary
  ***************************
  
  -------------------------------------------------------------------------------------
                      Adjusted    ---------- Fraction of Time in Flow Class ---------- 
                       /Actual         Up    Down  Sub   Sup   Up    Down  Norm  Inlet 
  Conduit               Length    Dry  Dry   Dry   Crit  Crit  Crit  Crit  Ltd   Ctrl  
  -------------------------------------------------------------------------------------
  3115                    1.00   0.31  0.00  0.00  0.34  0.34  0.00  0.00  0.66  0.00
  3116                    1.00   0.31  0.00  0.00  0.03  0.01  0.00  0.66  0.01  0.00
  3117                    1.00   0.32  0.00  0.00  0.06  0.20  0.00  0.42  0.20  0.00
  3118                    1.00   0.32  0.00  0.00  0.15  0.00  0.00  0.53  0.00  0.00
  3119                    1.00   0.32  0.00  0.00  0.13  0.02  0.00  0.53  0.02  0.00
  3129                    1.00   0.31  0.00  0.00  0.04  0.00  0.00  0.65  0.04  0.00
  3130                    1.00   0.31  0.00  0.00  0.67  0.00  0.00  0.02  0.41  0.00
  3131                    1.00   0.33  0.00  0.00  0.04  0.03  0.00  0.60  0.02  0.00
  3132                    1.00   0.34  0.00  0.00  0.05  0.07  0.00  0.54  0.07  0.00
  3133                    1.00   0.31  0.00  0.00  0.08  0.16  0.00  0.45  0.15  0.00
  3134                    1.00   0.31  0.01  0.00  0.00  0.68  0.00  0.00  0.60  0.00
  3135                    1.00   0.31  0.00  0.00  0.00  0.13  0.00  0.56  0.13  0.00
  3136                    1.00   0.33  0.00  0.00  0.01  0.02  0.00  0.64  0.01  0.00
  3137                    1.00   0.34  0.00  0.00  0.01  0.02  0.00  0.63  0.02  0.00
  3138                    1.00   0.35  0.00  0.00  0.01  0.00  0.00  0.65  0.00  0.00
  3139                    1.00   0.34  0.00  0.00  0.01  0.01  0.00  0.64  0.00  0.00
  3140                    1.00   0.34  0.00  0.00  0.00  0.01  0.00  0.65  0.00  0.00
  3141                    1.00   0.33  0.00  0.00  0.00  0.00  0.00  0.67  0.00  0.00
  3142                    1.00   0.31  0.00  0.00  0.00  0.00  0.00  0.69  0.00  0.00
  3143                    1.00   0.33  0.00  0.00  0.00  0.17  0.00  0.49  0.16  0.00
  3144                    1.00   0.33  0.00  0.00  0.01  0.65  0.00  0.00  0.66  0.00
  3145                    1.00   0.33  0.00  0.00  0.00  0.09  0.00  0.58  0.07  0.00
  3146                    1.00   0.31  0.00  0.00  0.01  0.68  0.00  0.00  0.68  0.00
  3147                    1.00   0.31  0.00  0.00  0.07  0.62  0.00  0.00  0.58  0.00
  3734                    1.00   0.32  0.00  0.00  0.10  0.05  0.00  0.53  0.01  0.00
  3816                    1.00   0.32  0.01  0.00  0.50  0.17  0.00  0.00  0.68  0.00
  3120                    1.00   0.30  0.02  0.00  0.00  0.67  0.00  0.00  0.01  0.00
  3752                    1.00   0.30  0.00  0.00  0.00  0.69  0.00  0.00  0.61  0.00
  3127                    1.00   0.31  0.00  0.00  0.00  0.69  0.00  0.00  0.69  0.00
  3121                    1.00   0.31  0.00  0.00  0.00  0.69  0.00  0.00  0.42  0.00
  
  
  *************************
  Conduit Surcharge Summary
  *************************
  
  ----------------------------------------------------------------------------
                                                           Hours        Hours 
                         --------- Hours Full --------   Above Full   Capacity
  Conduit                Both Ends  Upstream  Dnstream   Normal Flow   Limited
  ----------------------------------------------------------------------------
  3115                        0.01      0.01      0.05      0.01         0.01
  3116                        0.05      0.05      0.10      0.01         0.01
  3117                        0.11      0.11      0.57      0.02         0.02
  3118                        0.58      0.58      0.61      0.01         0.01
  3119                        0.52      0.52      0.59      0.49         0.50
  3129                        0.01      0.01      0.11      0.01         0.01
  3130                        0.18      0.49      0.18      0.50         0.16
  3131                        0.16      0.16      0.23      0.01         0.01
  3132                        0.27      0.28      0.28      0.28         0.27
  3133                        0.30      0.30      0.51      0.01         0.01
  3134                        0.01      0.01      0.26      0.01         0.01
  3135                        0.11      0.11      0.12      0.12         0.11
  3136                        0.04      0.04      0.08      0.01         0.01
  3137                        0.03      0.03      0.04      0.01         0.01
  3138                        0.07      0.07      0.09      0.09         0.07
  3139                        0.03      0.03      0.04      0.01         0.01
  3140                        0.01      0.01      0.02      0.01         0.01
  3146                        0.01      0.01      0.25      0.01         0.01
  3147                        0.25      0.25      0.39      0.01         0.01
  3734                        0.22      0.22      0.55      0.01         0.01
  3120                        0.01      0.62      0.01      0.49         0.01
  

  Analysis begun on:  Mon Oct  2 11:01:08 2023
  Analysis ended on:  Mon Oct  2 11:01:08 2023
  Total elapsed time: < 1 sec