
  EPA STORM WATER MANAGEMENT MODEL - VERSION 5.1 (Build 5.1.015)
  --------------------------------------------------------------

  Galviate 
  
  WARNING 07: routing time step reduced to the wet weather time step 
  
  *********************************************************
  NOTE: The summary statistics displayed in this report are
  based on results found at every computational time step,  
  not just on results from each reporting time step.
  *********************************************************
  
  ****************
  Analysis Options
  ****************
  Flow Units ............... CMS
  Process Models:
    Rainfall/Runoff ........ YES
    RDII ................... NO
    Snowmelt ............... NO
    Groundwater ............ NO
    Flow Routing ........... YES
    Ponding Allowed ........ NO
    Water Quality .......... NO
  Infiltration Method ...... CURVE_NUMBER
  Flow Routing Method ...... DYNWAVE
  Surcharge Method ......... EXTRAN
  Starting Date ............ 07/09/2020 00:00:00
  Ending Date .............. 07/09/2020 04:00:00
  Antecedent Dry Days ...... 15.0
  Report Time Step ......... 00:01:00
  Wet Time Step ............ 00:00:05
  Dry Time Step ............ 01:00:00
  Routing Time Step ........ 5.00 sec
  Variable Time Step ....... YES
  Maximum Trials ........... 8
  Number of Threads ........ 1
  Head Tolerance ........... 0.001500 m
  
  
  **************************        Volume         Depth
  Runoff Quantity Continuity     hectare-m            mm
  **************************     ---------       -------
  Total Precipitation ......         0.390        47.078
  Evaporation Loss .........         0.000         0.000
  Infiltration Loss ........         0.217        26.169
  Surface Runoff ...........         0.163        19.663
  Final Storage ............         0.010         1.246
  Continuity Error (%) .....         0.000
  
  
  **************************        Volume        Volume
  Flow Routing Continuity        hectare-m      10^6 ltr
  **************************     ---------     ---------
  Dry Weather Inflow .......         0.000         0.000
  Wet Weather Inflow .......         0.163         1.630
  Groundwater Inflow .......         0.000         0.000
  RDII Inflow ..............         0.000         0.000
  External Inflow ..........         0.000         0.000
  External Outflow .........         0.109         1.090
  Flooding Loss ............         0.054         0.540
  Evaporation Loss .........         0.000         0.000
  Exfiltration Loss ........         0.000         0.000
  Initial Stored Volume ....         0.000         0.000
  Final Stored Volume ......         0.000         0.000
  Continuity Error (%) .....         0.038
  
  
  ***************************
  Time-Step Critical Elements
  ***************************
  Link 3752 (57.60%)
  Link 3139 (6.70%)
  Link 3734 (5.80%)
  
  
  ********************************
  Highest Flow Instability Indexes
  ********************************
  Link 3130 (5)
  
  
  *************************
  Routing Time Step Summary
  *************************
  Minimum Time Step           :     0.50 sec
  Average Time Step           :     2.33 sec
  Maximum Time Step           :     5.00 sec
  Percent in Steady State     :     0.00
  Average Iterations per Step :     2.31
  Percent Not Converging      :     0.91
  Time Step Frequencies       :
      5.000 -  3.155 sec      :    32.43 %
      3.155 -  1.991 sec      :     5.25 %
      1.991 -  1.256 sec      :     8.61 %
      1.256 -  0.792 sec      :    47.85 %
      0.792 -  0.500 sec      :     5.85 %
  
  
  ***************************
  Subcatchment Runoff Summary
  ***************************
  
  ------------------------------------------------------------------------------------------------------------------------------
                            Total      Total      Total      Total     Imperv       Perv      Total       Total     Peak  Runoff
                           Precip      Runon       Evap      Infil     Runoff     Runoff     Runoff      Runoff   Runoff   Coeff
  Subcatchment                 mm         mm         mm         mm         mm         mm         mm    10^6 ltr      CMS
  ------------------------------------------------------------------------------------------------------------------------------
  6287                      47.08       0.00       0.00      25.45       0.00      20.37      20.37        0.09     0.07   0.433
  6296                      47.08       0.00       0.00      43.85       0.00       1.96       1.96        0.00     0.00   0.042
  25107                     47.08       0.00       0.00      19.42       0.00      26.53      26.53        0.07     0.06   0.564
  25108                     47.08       0.00       0.00      23.75       0.00      22.05      22.05        0.05     0.04   0.468
  25109                     47.08       0.00       0.00      22.75       0.00      23.06      23.06        0.11     0.09   0.490
  25110                     47.08       0.00       0.00      19.47       0.00      26.48      26.48        0.09     0.07   0.562
  25117                     47.08       0.00       0.00      22.61       0.00      23.20      23.20        0.12     0.08   0.493
  25119                     47.08       0.00       0.00      25.09       0.00      20.72      20.72        0.04     0.04   0.440
  25120                     47.08       0.00       0.00      25.21       0.00      20.60      20.60        0.07     0.06   0.438
  25121                     47.08       0.00       0.00      21.92       0.00      23.89      23.89        0.04     0.04   0.507
  25122                     47.08       0.00       0.00      21.91       0.00      23.90      23.90        0.09     0.08   0.508
  25123                     47.08       0.00       0.00      25.86       0.00      19.96      19.96        0.14     0.09   0.424
  25124                     47.08       0.00       0.00      28.90       0.00      16.91      16.91        0.06     0.05   0.359
  25125                     47.08       0.00       0.00      25.92       0.00      19.88      19.88        0.06     0.06   0.422
  25126                     47.08       0.00       0.00      24.38       0.00      21.43      21.43        0.01     0.01   0.455
  25127                     47.08       0.00       0.00      24.04       0.00      21.77      21.77        0.00     0.00   0.463
  25129                     47.08       0.00       0.00      42.75       0.00       3.07       3.07        0.01     0.01   0.065
  25130                     47.08       0.00       0.00      31.06       0.00      14.75      14.75        0.03     0.03   0.313
  25131                     47.08       0.00       0.00      25.07       0.00      20.74      20.74        0.03     0.03   0.441
  25132                     47.08       0.00       0.00      25.91       0.00      19.90      19.90        0.04     0.04   0.423
  25133                     47.08       0.00       0.00      29.50       0.00      16.31      16.31        0.01     0.01   0.346
  25135                     47.08       0.00       0.00      30.42       0.00      15.40      15.40        0.03     0.03   0.327
  25136                     47.08       0.00       0.00      28.98       0.00      16.84      16.84        0.05     0.04   0.358
  25977                     47.08       0.00       0.00      34.49       0.00      11.32      11.32        0.05     0.05   0.241
  27169                     47.08       0.00       0.00      25.42       0.00      20.39      20.39        0.10     0.09   0.433
  28233                     47.08       0.00       0.00      19.55       0.00      26.36      26.36        0.23     0.17   0.560
  
  
  ******************
  Node Depth Summary
  ******************
  
  ---------------------------------------------------------------------------------
                                 Average  Maximum  Maximum  Time of Max    Reported
                                   Depth    Depth      HGL   Occurrence   Max Depth
  Node                 Type       Meters   Meters   Meters  days hr:min      Meters
  ---------------------------------------------------------------------------------
  1287                 JUNCTION     0.09     0.90   415.81     0  01:43        0.90
  1296                 JUNCTION     0.01     0.03   434.24     0  02:15        0.03
  20107                JUNCTION     0.06     0.15   398.90     0  01:45        0.15
  20108                JUNCTION     0.07     0.25   397.84     0  01:45        0.24
  20109                JUNCTION     0.11     1.26   397.98     0  01:45        0.57
  20110                JUNCTION     0.43     0.92   394.88     0  01:38        0.92
  20111                JUNCTION     0.63     1.35   394.77     0  01:39        1.35
  20119                JUNCTION     0.04     0.14   410.04     0  01:45        0.14
  20120                JUNCTION     0.26     1.27   409.07     0  01:44        1.10
  20121                JUNCTION     0.37     1.47   401.34     0  01:41        1.47
  20122                JUNCTION     0.17     0.69   395.19     0  01:39        0.43
  20123                JUNCTION     0.42     1.47   399.10     0  01:40        1.47
  20124                JUNCTION     0.08     0.26   417.68     0  01:45        0.26
  20125                JUNCTION     0.07     0.23   421.60     0  01:45        0.23
  20126                JUNCTION     0.08     0.22   426.12     0  01:45        0.22
  20127                JUNCTION     0.11     0.24   428.25     0  01:45        0.24
  20128                JUNCTION     0.29     0.48   429.69     0  01:45        0.48
  20129                JUNCTION     0.18     0.31   430.72     0  01:45        0.31
  20130                JUNCTION     0.19     0.33   432.04     0  01:45        0.33
  20131                JUNCTION     0.16     0.29   434.44     0  01:45        0.29
  20132                JUNCTION     0.04     0.12   436.13     0  01:45        0.12
  20133                JUNCTION     0.07     0.14   439.17     0  01:45        0.14
  20135                JUNCTION     0.04     0.08   431.13     0  01:45        0.08
  20136                JUNCTION     0.03     0.08   421.84     0  01:45        0.08
  20138                JUNCTION     0.15     1.44   415.81     0  01:43        1.43
  20977                JUNCTION     0.02     0.08   440.48     0  01:45        0.08
  22169                JUNCTION     0.22     1.10   409.39     0  01:41        1.10
  20117                JUNCTION     0.14     0.29   381.14     0  01:45        0.29
  20116                JUNCTION     0.12     0.24   384.68     0  01:45        0.24
  23233                JUNCTION     0.11     0.23   385.23     0  01:45        0.23
  1                    OUTFALL      0.14     0.29   378.00     0  01:45        0.29
  
  
  *******************
  Node Inflow Summary
  *******************
  
  -------------------------------------------------------------------------------------------------
                                  Maximum  Maximum                  Lateral       Total        Flow
                                  Lateral    Total  Time of Max      Inflow      Inflow     Balance
                                   Inflow   Inflow   Occurrence      Volume      Volume       Error
  Node                 Type           CMS      CMS  days hr:min    10^6 ltr    10^6 ltr     Percent
  -------------------------------------------------------------------------------------------------
  1287                 JUNCTION     0.074    0.145     0  01:45      0.0855       0.163      -0.012
  1296                 JUNCTION     0.004    0.004     0  02:15     0.00451     0.00451       0.151
  20107                JUNCTION     0.063    0.063     0  01:45      0.0743      0.0743      -0.025
  20108                JUNCTION     0.045    0.107     0  01:45      0.0529       0.127       0.170
  20109                JUNCTION     0.089    0.194     0  01:45       0.111       0.238      -0.116
  20110                JUNCTION     0.072    0.253     0  01:44      0.0874       0.325      -0.029
  20111                JUNCTION     0.000    0.495     0  01:45           0       0.995      -0.129
  20119                JUNCTION     0.037    0.037     0  01:45      0.0394      0.0394       0.449
  20120                JUNCTION     0.064    0.153     0  01:44        0.07       0.201       0.042
  20121                JUNCTION     0.037    0.178     0  01:43      0.0382       0.239       0.104
  20122                JUNCTION     0.082    0.221     0  01:45      0.0932        0.32      -0.036
  20123                JUNCTION     0.093    0.377     0  01:45       0.142       0.583      -0.070
  20124                JUNCTION     0.051    0.268     0  01:45      0.0626       0.299      -0.471
  20125                JUNCTION     0.055    0.219     0  01:45      0.0557       0.238       0.646
  20126                JUNCTION     0.011    0.169     0  01:45      0.0107       0.182      -0.032
  20127                JUNCTION     0.005    0.159     0  01:45     0.00435       0.172       0.110
  20128                JUNCTION     0.000    0.155     0  01:45           0       0.168       0.202
  20129                JUNCTION     0.009    0.155     0  01:45      0.0126       0.168       0.126
  20130                JUNCTION     0.028    0.155     0  01:45       0.028       0.156       0.134
  20131                JUNCTION     0.030    0.128     0  01:45      0.0311       0.128       0.137
  20132                JUNCTION     0.035    0.098     0  01:45      0.0358      0.0966      -0.013
  20133                JUNCTION     0.010    0.064     0  01:45     0.00979      0.0607       0.012
  20135                JUNCTION     0.027    0.027     0  01:45      0.0277      0.0322       0.100
  20136                JUNCTION     0.044    0.071     0  01:45      0.0455      0.0777       0.028
  20138                JUNCTION     0.000    0.358     0  01:43           0       0.443       0.235
  20977                JUNCTION     0.054    0.054     0  01:45       0.051       0.051      -0.000
  22169                JUNCTION     0.087    0.087     0  01:45      0.0999      0.0999       0.051
  20117                JUNCTION     0.080    0.516     0  01:45       0.123        1.09       0.008
  20116                JUNCTION     0.000    0.437     0  01:45           0       0.967      -0.005
  23233                JUNCTION     0.175    0.438     0  01:45       0.235       0.967       0.003
  1                    OUTFALL      0.000    0.516     0  01:45           0        1.09       0.000
  
  
  **********************
  Node Surcharge Summary
  **********************
  
  Surcharging occurs when water rises above the top of the highest conduit.
  ---------------------------------------------------------------------
                                               Max. Height   Min. Depth
                                   Hours       Above Crown    Below Rim
  Node                 Type      Surcharged         Meters       Meters
  ---------------------------------------------------------------------
  1287                 JUNCTION        0.08          0.700        0.000
  20109                JUNCTION        0.03          0.900        0.000
  20110                JUNCTION        0.64          0.570        0.000
  20111                JUNCTION        0.62          0.470        0.000
  20120                JUNCTION        0.04          0.710        0.000
  20121                JUNCTION        0.14          0.790        0.000
  20122                JUNCTION        0.14          0.308        0.492
  20123                JUNCTION        0.38          1.140        0.000
  20138                JUNCTION        0.09          1.040        0.000
  22169                JUNCTION        0.32          0.850        0.000
  
  
  *********************
  Node Flooding Summary
  *********************
  
  Flooding refers to all water that overflows a node, whether it ponds or not.
  --------------------------------------------------------------------------
                                                             Total   Maximum
                                 Maximum   Time of Max       Flood    Ponded
                        Hours       Rate    Occurrence      Volume     Depth
  Node                 Flooded       CMS   days hr:min    10^6 ltr    Meters
  --------------------------------------------------------------------------
  1287                    0.07     0.124      0  01:45       0.021     0.000
  20109                   0.01     0.019      0  01:45       0.000     0.000
  20110                   0.58     0.192      0  01:44       0.139     0.000
  20111                   0.61     0.232      0  01:45       0.264     0.000
  20120                   0.01     0.016      0  01:44       0.000     0.000
  20121                   0.13     0.040      0  01:43       0.012     0.000
  20123                   0.30     0.163      0  01:45       0.096     0.000
  20138                   0.01     0.075      0  01:43       0.000     0.000
  22169                   0.12     0.050      0  01:45       0.008     0.000
  
  
  ***********************
  Outfall Loading Summary
  ***********************
  
  -----------------------------------------------------------
                         Flow       Avg       Max       Total
                         Freq      Flow      Flow      Volume
  Outfall Node           Pcnt       CMS       CMS    10^6 ltr
  -----------------------------------------------------------
  1                     82.20     0.240     0.516       1.090
  -----------------------------------------------------------
  System                82.20     0.240     0.516       1.090
  
  
  ********************
  Link Flow Summary
  ********************
  
  -----------------------------------------------------------------------------
                                 Maximum  Time of Max   Maximum    Max/    Max/
                                  |Flow|   Occurrence   |Veloc|    Full    Full
  Link                 Type          CMS  days hr:min     m/sec    Flow   Depth
  -----------------------------------------------------------------------------
  3115                 CONDUIT     0.062     0  01:45      1.37    0.47    0.64
  3116                 CONDUIT     0.105     0  01:45      1.81    0.91    0.91
  3117                 CONDUIT     0.182     0  01:44      2.64    0.96    1.00
  3118                 CONDUIT     0.138     0  01:39      1.96    1.31    1.00
  3119                 CONDUIT     0.213     0  01:43      3.02    1.06    1.00
  3129                 CONDUIT     0.037     0  01:45      1.25    0.61    0.78
  3130                 CONDUIT     0.062     0  01:41      1.27    2.04    1.00
  3131                 CONDUIT     0.144     0  01:43      3.21    1.02    1.00
  3132                 CONDUIT     0.139     0  01:48      2.94    1.08    1.00
  3133                 CONDUIT     0.297     0  01:42      4.30    1.04    1.00
  3134                 CONDUIT     0.268     0  01:45      2.74    0.65    0.81
  3135                 CONDUIT     0.218     0  01:45      3.65    0.95    0.79
  3136                 CONDUIT     0.168     0  01:45      3.55    0.73    0.64
  3137                 CONDUIT     0.159     0  01:45      4.79    0.74    0.64
  3138                 CONDUIT     0.156     0  01:45      4.18    0.86    0.71
  3139                 CONDUIT     0.155     0  01:45      6.05    0.53    0.52
  3140                 CONDUIT     0.155     0  01:45      4.88    0.70    0.62
  3141                 CONDUIT     0.128     0  01:45      4.55    0.60    0.56
  3142                 CONDUIT     0.098     0  01:45      4.11    0.48    0.49
  3143                 CONDUIT     0.063     0  01:45      3.41    0.27    0.40
  3144                 CONDUIT     0.004     0  02:15      1.55    0.04    0.14
  3145                 CONDUIT     0.027     0  01:45      3.71    0.13    0.28
  3146                 CONDUIT     0.071     0  01:45      3.13    0.37    0.71
  3147                 CONDUIT     0.129     0  01:43      4.09    0.96    1.00
  3734                 CONDUIT     0.221     0  01:45      5.40    0.52    1.00
  3816                 CONDUIT     0.053     0  01:45      2.66    0.20    0.43
  3120                 CONDUIT     0.263     0  01:45      4.62    1.03    0.89
  3752                 CONDUIT     0.437     0  01:45      4.83    0.44    0.47
  3127                 CONDUIT     0.437     0  01:45      4.12    0.46    0.53
  3121                 CONDUIT     0.516     0  01:45      4.30    0.65    0.59
  
  
  ***************************
  Flow Classification Summary
  ***************************
  
  -------------------------------------------------------------------------------------
                      Adjusted    ---------- Fraction of Time in Flow Class ---------- 
                       /Actual         Up    Down  Sub   Sup   Up    Down  Norm  Inlet 
  Conduit               Length    Dry  Dry   Dry   Crit  Crit  Crit  Crit  Ltd   Ctrl  
  -------------------------------------------------------------------------------------
  3115                    1.00   0.18  0.00  0.00  0.04  0.79  0.00  0.00  0.60  0.00
  3116                    1.00   0.18  0.00  0.00  0.03  0.03  0.00  0.76  0.01  0.00
  3117                    1.00   0.18  0.00  0.00  0.26  0.35  0.00  0.21  0.22  0.00
  3118                    1.00   0.18  0.00  0.00  0.46  0.00  0.00  0.36  0.00  0.00
  3119                    1.00   0.18  0.00  0.00  0.28  0.18  0.00  0.36  0.05  0.00
  3129                    1.00   0.18  0.00  0.00  0.06  0.01  0.00  0.75  0.02  0.00
  3130                    1.00   0.18  0.00  0.00  0.81  0.00  0.00  0.01  0.37  0.00
  3131                    1.00   0.19  0.00  0.00  0.06  0.06  0.00  0.70  0.01  0.00
  3132                    1.00   0.19  0.00  0.00  0.10  0.29  0.00  0.42  0.11  0.00
  3133                    1.00   0.18  0.00  0.00  0.08  0.53  0.00  0.20  0.23  0.00
  3134                    1.00   0.18  0.12  0.00  0.05  0.64  0.00  0.00  0.58  0.00
  3135                    1.00   0.18  0.00  0.00  0.00  0.48  0.00  0.34  0.19  0.00
  3136                    1.00   0.19  0.00  0.00  0.00  0.00  0.00  0.81  0.00  0.00
  3137                    1.00   0.19  0.00  0.00  0.00  0.02  0.00  0.79  0.01  0.00
  3138                    1.00   0.21  0.00  0.00  0.00  0.00  0.00  0.79  0.00  0.00
  3139                    1.00   0.20  0.00  0.00  0.00  0.00  0.00  0.80  0.00  0.00
  3140                    1.00   0.20  0.00  0.00  0.00  0.00  0.00  0.80  0.00  0.00
  3141                    1.00   0.19  0.00  0.00  0.00  0.00  0.00  0.81  0.00  0.00
  3142                    1.00   0.18  0.00  0.00  0.00  0.00  0.00  0.82  0.00  0.00
  3143                    1.00   0.19  0.02  0.00  0.00  0.46  0.00  0.33  0.17  0.00
  3144                    1.00   0.20  0.19  0.00  0.32  0.28  0.00  0.00  0.53  0.00
  3145                    1.00   0.20  0.00  0.00  0.00  0.19  0.00  0.61  0.06  0.00
  3146                    1.00   0.31  0.05  0.00  0.07  0.57  0.00  0.00  0.61  0.00
  3147                    1.00   0.18  0.13  0.00  0.11  0.58  0.00  0.00  0.56  0.00
  3734                    1.00   0.18  0.00  0.00  0.37  0.08  0.00  0.37  0.01  0.00
  3816                    1.00   0.19  0.23  0.00  0.13  0.45  0.00  0.00  0.59  0.00
  3120                    1.00   0.18  0.01  0.00  0.00  0.82  0.00  0.00  0.38  0.00
  3752                    1.00   0.18  0.00  0.00  0.00  0.82  0.00  0.00  0.57  0.00
  3127                    1.00   0.18  0.00  0.00  0.00  0.82  0.00  0.00  0.60  0.00
  3121                    1.00   0.18  0.00  0.00  0.00  0.82  0.00  0.00  0.19  0.00
  
  
  *************************
  Conduit Surcharge Summary
  *************************
  
  ----------------------------------------------------------------------------
                                                           Hours        Hours 
                         --------- Hours Full --------   Above Full   Capacity
  Conduit                Both Ends  Upstream  Dnstream   Normal Flow   Limited
  ----------------------------------------------------------------------------
  3116                        0.01      0.01      0.03      0.01         0.01
  3117                        0.04      0.04      0.64      0.01         0.01
  3118                        0.65      0.65      0.68      0.01         0.01
  3119                        0.40      0.40      0.66      0.34         0.34
  3129                        0.01      0.01      0.04      0.01         0.01
  3130                        0.10      0.32      0.10      0.38         0.10
  3131                        0.08      0.08      0.14      0.02         0.01
  3132                        0.16      0.16      0.17      0.17         0.16
  3133                        0.11      0.11      0.38      0.02         0.01
  3134                        0.01      0.01      0.09      0.01         0.01
  3146                        0.01      0.01      0.08      0.01         0.01
  3147                        0.08      0.08      0.17      0.01         0.01
  3734                        0.14      0.14      0.62      0.01         0.01
  3120                        0.01      0.69      0.01      0.35         0.01
  

  Analysis begun on:  Wed Sep 20 17:38:23 2023
  Analysis ended on:  Wed Sep 20 17:38:24 2023
  Total elapsed time: 00:00:01